  0
SECTION
  2
ENTITIES
999
DXF created from EnergyPlus
999
Program Version,EnergyPlus, Version 9.0.1-bb7ca4f0da, YMD=2021.01.02 19:15
999
Polygon Action,TRIANGULATE3DFACE
999
Color Scheme,Default
999
Text - True North
  0
TEXT
  8
1
  6
Continuous
 62
  3
 10
      -35.36809
 20
      -11.26013
 30
        0.10000
 40
 .25
  1
True North
 41
 0.0
  7
MONOTXT
210
0.0
220
0.0
230
1.0
999
Text - Building Title
  0
TEXT
  8
1
  6
Continuous
 62
  3
 10
      -38.36809
 20
      -15.26013
 30
        0.10000
 40
 .4
  1
Building - Building
 41
 0.0
  7
MONOTXT
210
0.0
220
0.0
230
1.0
999
North Arrow Stem
  0
3DFACE
  8
1
 62
  3
 10
      -34.36809
 20
      -11.26013
 30
        0.10000
 11
      -34.36809
 21
      -11.26013
 31
        0.00000
 12
      -34.36809
 22
      -14.26013
 32
        0.00000
 13
      -34.36809
 23
      -14.26013
 33
        0.10000
999
North Arrow Head 1
  0
3DFACE
  8
1
 62
  3
 10
      -34.36809
 20
      -11.26013
 30
        0.10000
 11
      -34.36809
 21
      -11.26013
 31
        0.00000
 12
      -34.86809
 22
      -12.12615
 32
        0.00000
 13
      -34.86809
 23
      -12.12615
 33
        0.10000
999
North Arrow Head 2
  0
3DFACE
  8
1
 62
  3
 10
      -34.36809
 20
      -11.26013
 30
        0.10000
 11
      -34.36809
 21
      -11.26013
 31
        0.00000
 12
      -33.86809
 22
      -12.12615
 32
        0.00000
 13
      -33.86809
 23
      -12.12615
 33
        0.10000
999
North Arrow Side 1
  0
3DFACE
  8
1
 62
  3
 10
      -34.86809
 20
       -9.76013
 30
        0.10000
 11
      -34.86809
 21
       -9.76013
 31
        0.00000
 12
      -34.86809
 22
      -10.76013
 32
        0.00000
 13
      -34.86809
 23
      -10.76013
 33
        0.10000
999
North Arrow Side 2
  0
3DFACE
  8
1
 62
  3
 10
      -34.86809
 20
       -9.76013
 30
        0.10000
 11
      -34.86809
 21
       -9.76013
 31
        0.00000
 12
      -33.86809
 22
      -10.76013
 32
        0.00000
 13
      -33.86809
 23
      -10.76013
 33
        0.10000
999
North Arrow Side 3
  0
3DFACE
  8
1
 62
  3
 10
      -33.86809
 20
       -9.76013
 30
        0.10000
 11
      -33.86809
 21
       -9.76013
 31
        0.00000
 12
      -33.86809
 22
      -10.76013
 32
        0.00000
 13
      -33.86809
 23
      -10.76013
 33
        0.10000
999
Zone Names
999
Zone=1:BLOCK1_ZONE3
999
Zone=2:BLOCK1_ZONE1
999
Zone=3:BLOCK1_ZONE4
999
Zone=4:BLOCK1_ZONE2
999
BLOCK1:ZONE3:BLOCK1:ZONE3_PARTITION_2_0_0
  0
3DFACE
  8
BLOCK1_ZONE3
 62
 43
 10
       -7.49951
 20
       -0.19134
 30
        3.50000
 11
       -7.49951
 21
       -0.19134
 31
        0.00000
 12
       -7.49951
 22
        9.81945
 32
        0.00000
 13
       -7.49951
 23
        9.81945
 33
        3.50000
999
BLOCK1:ZONE3:BLOCK1:ZONE3_PARTITION_2_0_0_0_0_0_DOOR
  0
3DFACE
  8
BLOCK1_ZONE3
 62
 45
 10
       -7.49951
 20
        4.27080
 30
        2.19700
 11
       -7.49951
 21
        4.27080
 31
        0.00300
 12
       -7.49951
 22
        5.16480
 32
        0.00300
 13
       -7.49951
 23
        5.16480
 33
        2.19700
999
BLOCK1:ZONE3:BLOCK1:ZONE3_WALL_3_0_0
  0
3DFACE
  8
BLOCK1_ZONE3
 62
 43
 10
       -7.49951
 20
        9.81945
 30
        3.50000
 11
       -7.49951
 21
        9.81945
 31
        0.00000
 12
      -24.36809
 22
        9.81945
 32
        0.00000
 13
      -24.36809
 23
        9.81945
 33
        3.50000
999
BLOCK1:ZONE3:BLOCK1:ZONE3_WALL_3_0_0_0_0_2_WIN
  0
3DFACE
  8
BLOCK1_ZONE3
 62
143
 10
      -21.04587
 20
        9.81945
 30
        2.26000
 11
      -21.04587
 21
        9.81945
 31
        0.84000
 12
      -21.60661
 22
        9.81945
 32
        0.84000
 13
      -21.60661
 23
        9.81945
 33
        2.26000
999
BLOCK1:ZONE3:BLOCK1:ZONE3_WALL_4_0_0
  0
3DFACE
  8
BLOCK1_ZONE3
 62
 43
 10
      -24.36809
 20
        9.81945
 30
        3.50000
 11
      -24.36809
 21
        9.81945
 31
        0.00000
 12
      -24.36809
 22
       -0.19134
 32
        0.00000
 13
      -24.36809
 23
       -0.19134
 33
        3.50000
999
BLOCK1:ZONE3:BLOCK1:ZONE3_WALL_4_0_0_0_0_0_WIN
  0
3DFACE
  8
BLOCK1_ZONE3
 62
143
 10
      -24.36809
 20
        5.23887
 30
        2.26000
 11
      -24.36809
 21
        5.23887
 31
        0.84000
 12
      -24.36809
 22
        4.19674
 32
        0.84000
 13
      -24.36809
 23
        4.19674
 33
        2.26000
999
BLOCK1:ZONE3:BLOCK1:ZONE3_PARTITION_5_0_0
  0
3DFACE
  8
BLOCK1_ZONE3
 62
 43
 10
      -24.36809
 20
       -0.19134
 30
        3.50000
 11
      -24.36809
 21
       -0.19134
 31
        0.00000
 12
       -7.49951
 22
       -0.19134
 32
        0.00000
 13
       -7.49951
 23
       -0.19134
 33
        3.50000
999
BLOCK1:ZONE3:BLOCK1:ZONE3_PARTITION_5_0_0_0_0_0_DOOR
  0
3DFACE
  8
BLOCK1_ZONE3
 62
 45
 10
      -16.82260
 20
       -0.19134
 30
        2.94240
 11
      -16.82260
 21
       -0.19134
 31
        0.00200
 12
      -14.95592
 22
       -0.19134
 32
        0.00200
 13
      -14.95592
 23
       -0.19134
 33
        2.94240
999
BLOCK1:ZONE3:BLOCK1:ZONE3_GROUNDFLOOR_0_0_0
  0
3DFACE
  8
BLOCK1_ZONE3
 62
  8
 10
       -7.49951
 20
        9.81945
 30
        0.00000
 11
       -7.49951
 21
       -0.19134
 31
        0.00000
 12
      -24.36809
 22
       -0.19134
 32
        0.00000
 13
      -24.36809
 23
        9.81945
 33
        0.00000
999
BLOCK1:ZONE3:BLOCK1:ZONE3_ROOF_1_0_0
  0
3DFACE
  8
BLOCK1_ZONE3
 62
 15
 10
      -24.36809
 20
        9.81945
 30
        3.50000
 11
      -24.36809
 21
       -0.19134
 31
        3.50000
 12
       -7.49951
 22
       -0.19134
 32
        3.50000
 13
       -7.49951
 23
        9.81945
 33
        3.50000
999
BLOCK1:ZONE1:BLOCK1:ZONE1_PARTITION_4_0_10000
  0
3DFACE
  8
BLOCK1_ZONE1
 62
 43
 10
       -7.49951
 20
        9.81945
 30
        3.50000
 11
       -7.49951
 21
        9.81945
 31
        0.00000
 12
       -7.49951
 22
       -0.19134
 32
        0.00000
 13
       -7.49951
 23
       -0.19134
 33
        3.50000
999
BLOCK1:ZONE1:BLOCK1:ZONE1_PARTITION_4_0_0_0_0_0_DOOR_10002
  0
3DFACE
  8
BLOCK1_ZONE1
 62
 45
 10
       -7.49951
 20
        5.16480
 30
        2.19700
 11
       -7.49951
 21
        5.16480
 31
        0.00300
 12
       -7.49951
 22
        4.27080
 32
        0.00300
 13
       -7.49951
 23
        4.27080
 33
        2.19700
999
BLOCK1:ZONE1:BLOCK1:ZONE1_WALL_2_0_0
  0
3DFACE
  8
BLOCK1_ZONE1
 62
 43
 10
       20.67151
 20
       -0.19134
 30
        3.50000
 11
       20.67151
 21
       -0.19134
 31
        0.00000
 12
       20.67151
 22
        9.81945
 32
        0.00000
 13
       20.67151
 23
        9.81945
 33
        3.50000
999
BLOCK1:ZONE1:BLOCK1:ZONE1_WALL_2_0_0_0_0_0_WIN
  0
3DFACE
  8
BLOCK1_ZONE1
 62
143
 10
       20.67151
 20
        4.19674
 30
        2.26000
 11
       20.67151
 21
        4.19674
 31
        0.84000
 12
       20.67151
 22
        5.23887
 32
        0.84000
 13
       20.67151
 23
        5.23887
 33
        2.26000
999
BLOCK1:ZONE1:BLOCK1:ZONE1_WALL_3_0_0
  0
3DFACE
  8
BLOCK1_ZONE1
 62
 43
 10
       20.67151
 20
        9.81945
 30
        3.50000
 11
       20.67151
 21
        9.81945
 31
        0.00000
 12
       -7.49951
 22
        9.81945
 32
        0.00000
 13
       -7.49951
 23
        9.81945
 33
        3.50000
999
BLOCK1:ZONE1:BLOCK1:ZONE1_WALL_3_0_0_0_0_0_DOOR
  0
3DFACE
  8
BLOCK1_ZONE1
 62
 45
 10
        2.67143
 20
        9.81945
 30
        3.01942
 11
        2.67143
 21
        9.81945
 31
        0.00200
 12
       -1.19110
 22
        9.81945
 32
        0.00200
 13
       -1.19110
 23
        9.81945
 33
        3.01942
999
BLOCK1:ZONE1:BLOCK1:ZONE1_PARTITION_5_0_0
  0
3DFACE
  8
BLOCK1_ZONE1
 62
 43
 10
       -7.49951
 20
       -0.19134
 30
        3.50000
 11
       -7.49951
 21
       -0.19134
 31
        0.00000
 12
        3.91227
 22
       -0.19134
 32
        0.00000
 13
        3.91227
 23
       -0.19134
 33
        3.50000
999
BLOCK1:ZONE1:BLOCK1:ZONE1_PARTITION_5_0_0_0_0_0_DOOR
  0
3DFACE
  8
BLOCK1_ZONE1
 62
 45
 10
       -1.43907
 20
       -0.19134
 30
        2.62331
 11
       -1.43907
 21
       -0.19134
 31
        0.00200
 12
        0.17869
 22
       -0.19134
 32
        0.00200
 13
        0.17869
 23
       -0.19134
 33
        2.62331
999
BLOCK1:ZONE1:BLOCK1:ZONE1_PARTITION_6_0_0
  0
3DFACE
  8
BLOCK1_ZONE1
 62
 43
 10
        3.91227
 20
       -0.19134
 30
        3.50000
 11
        3.91227
 21
       -0.19134
 31
        0.00000
 12
       20.67151
 22
       -0.19134
 32
        0.00000
 13
       20.67151
 23
       -0.19134
 33
        3.50000
999
BLOCK1:ZONE1:BLOCK1:ZONE1_GROUNDFLOOR_0_0_0
  0
3DFACE
  8
BLOCK1_ZONE1
 62
  8
 10
       20.67151
 20
        9.81945
 30
        0.00000
 11
       20.67151
 21
       -0.19134
 31
        0.00000
 12
       -7.49951
 22
       -0.19134
 32
        0.00000
 13
       -7.49951
 23
        9.81945
 33
        0.00000
999
BLOCK1:ZONE1:BLOCK1:ZONE1_ROOF_1_0_0
  0
3DFACE
  8
BLOCK1_ZONE1
 62
 15
 10
       -7.49951
 20
        9.81945
 30
        3.50000
 11
       -7.49951
 21
       -0.19134
 31
        3.50000
 12
       20.67151
 22
       -0.19134
 32
        3.50000
 13
       20.67151
 23
        9.81945
 33
        3.50000
999
BLOCK1:ZONE4:BLOCK1:ZONE4_PARTITION_4_0_10002
  0
3DFACE
  8
BLOCK1_ZONE4
 62
 43
 10
       -7.49951
 20
       -0.19134
 30
        3.50000
 11
       -7.49951
 21
       -0.19134
 31
        0.00000
 12
      -24.36809
 22
       -0.19134
 32
        0.00000
 13
      -24.36809
 23
       -0.19134
 33
        3.50000
999
BLOCK1:ZONE4:BLOCK1:ZONE4_PARTITION_4_0_0_0_0_0_DOOR_10004
  0
3DFACE
  8
BLOCK1_ZONE4
 62
 45
 10
      -14.95592
 20
       -0.19134
 30
        2.94240
 11
      -14.95592
 21
       -0.19134
 31
        0.00200
 12
      -16.82260
 22
       -0.19134
 32
        0.00200
 13
      -16.82260
 23
       -0.19134
 33
        2.94240
999
BLOCK1:ZONE4:BLOCK1:ZONE4_PARTITION_3_0_10004
  0
3DFACE
  8
BLOCK1_ZONE4
 62
 43
 10
        3.91227
 20
       -0.19134
 30
        3.50000
 11
        3.91227
 21
       -0.19134
 31
        0.00000
 12
       -7.49951
 22
       -0.19134
 32
        0.00000
 13
       -7.49951
 23
       -0.19134
 33
        3.50000
999
BLOCK1:ZONE4:BLOCK1:ZONE4_PARTITION_3_0_0_0_0_0_DOOR_10006
  0
3DFACE
  8
BLOCK1_ZONE4
 62
 45
 10
        0.17869
 20
       -0.19134
 30
        2.62331
 11
        0.17869
 21
       -0.19134
 31
        0.00200
 12
       -1.43907
 22
       -0.19134
 32
        0.00200
 13
       -1.43907
 23
       -0.19134
 33
        2.62331
999
BLOCK1:ZONE4:BLOCK1:ZONE4_PARTITION_2_0_0
  0
3DFACE
  8
BLOCK1_ZONE4
 62
 43
 10
        3.91227
 20
      -14.26013
 30
        3.50000
 11
        3.91227
 21
      -14.26013
 31
        0.00000
 12
        3.91227
 22
       -0.19134
 32
        0.00000
 13
        3.91227
 23
       -0.19134
 33
        3.50000
999
BLOCK1:ZONE4:BLOCK1:ZONE4_PARTITION_2_0_0_0_0_0_DOOR
  0
3DFACE
  8
BLOCK1_ZONE4
 62
 45
 10
        3.91227
 20
       -6.65640
 30
        2.99074
 11
        3.91227
 21
       -6.65640
 31
        0.00200
 12
        3.91227
 22
       -4.65109
 32
        0.00200
 13
        3.91227
 23
       -4.65109
 33
        2.99074
999
BLOCK1:ZONE4:BLOCK1:ZONE4_WALL_5_0_0
  0
3DFACE
  8
BLOCK1_ZONE4
 62
 43
 10
      -24.36809
 20
       -0.19134
 30
        3.50000
 11
      -24.36809
 21
       -0.19134
 31
        0.00000
 12
      -24.36809
 22
      -14.26013
 32
        0.00000
 13
      -24.36809
 23
      -14.26013
 33
        3.50000
999
BLOCK1:ZONE4:BLOCK1:ZONE4_WALL_5_0_0_0_0_1_WIN
  0
3DFACE
  8
BLOCK1_ZONE4
 62
143
 10
      -24.36809
 20
      -10.18716
 30
        2.26000
 11
      -24.36809
 21
      -10.18716
 31
        0.84000
 12
      -24.36809
 22
      -10.90495
 32
        0.84000
 13
      -24.36809
 23
      -10.90495
 33
        2.26000
999
BLOCK1:ZONE4:BLOCK1:ZONE4_WALL_6_0_0
  0
3DFACE
  8
BLOCK1_ZONE4
 62
 43
 10
      -24.36809
 20
      -14.26013
 30
        3.50000
 11
      -24.36809
 21
      -14.26013
 31
        0.00000
 12
        3.91227
 22
      -14.26013
 32
        0.00000
 13
        3.91227
 23
      -14.26013
 33
        3.50000
999
BLOCK1:ZONE4:BLOCK1:ZONE4_WALL_6_0_0_0_0_4_WIN
  0
3DFACE
  8
BLOCK1_ZONE4
 62
143
 10
        0.73413
 20
      -14.26013
 30
        2.26000
 11
        0.73413
 21
      -14.26013
 31
        0.84000
 12
        1.30484
 22
      -14.26013
 32
        0.84000
 13
        1.30484
 23
      -14.26013
 33
        2.26000
999
BLOCK1:ZONE4:BLOCK1:ZONE4_GROUNDFLOOR_0_0_0
  0
3DFACE
  8
BLOCK1_ZONE4
 62
  8
 10
        3.91227
 20
       -0.19134
 30
        0.00000
 11
        3.91227
 21
      -14.26013
 31
        0.00000
 12
      -24.36809
 22
      -14.26013
 32
        0.00000
 13
      -24.36809
 23
       -0.19134
 33
        0.00000
999
BLOCK1:ZONE4:BLOCK1:ZONE4_ROOF_1_0_0
  0
3DFACE
  8
BLOCK1_ZONE4
 62
 15
 10
      -24.36809
 20
       -0.19134
 30
        3.50000
 11
      -24.36809
 21
      -14.26013
 31
        3.50000
 12
        3.91227
 22
      -14.26013
 32
        3.50000
 13
        3.91227
 23
       -0.19134
 33
        3.50000
999
BLOCK1:ZONE2:BLOCK1:ZONE2_PARTITION_3_0_10006
  0
3DFACE
  8
BLOCK1_ZONE2
 62
 43
 10
       20.67151
 20
       -0.19134
 30
        3.50000
 11
       20.67151
 21
       -0.19134
 31
        0.00000
 12
        3.91227
 22
       -0.19134
 32
        0.00000
 13
        3.91227
 23
       -0.19134
 33
        3.50000
999
BLOCK1:ZONE2:BLOCK1:ZONE2_PARTITION_4_0_10007
  0
3DFACE
  8
BLOCK1_ZONE2
 62
 43
 10
        3.91227
 20
       -0.19134
 30
        3.50000
 11
        3.91227
 21
       -0.19134
 31
        0.00000
 12
        3.91227
 22
      -14.26013
 32
        0.00000
 13
        3.91227
 23
      -14.26013
 33
        3.50000
999
BLOCK1:ZONE2:BLOCK1:ZONE2_PARTITION_4_0_0_0_0_0_DOOR_10009
  0
3DFACE
  8
BLOCK1_ZONE2
 62
 45
 10
        3.91227
 20
       -4.65109
 30
        2.99074
 11
        3.91227
 21
       -4.65109
 31
        0.00200
 12
        3.91227
 22
       -6.65640
 32
        0.00200
 13
        3.91227
 23
       -6.65640
 33
        2.99074
999
BLOCK1:ZONE2:BLOCK1:ZONE2_WALL_2_0_0
  0
3DFACE
  8
BLOCK1_ZONE2
 62
 43
 10
       20.67151
 20
      -14.26013
 30
        3.50000
 11
       20.67151
 21
      -14.26013
 31
        0.00000
 12
       20.67151
 22
       -0.19134
 32
        0.00000
 13
       20.67151
 23
       -0.19134
 33
        3.50000
999
BLOCK1:ZONE2:BLOCK1:ZONE2_WALL_2_0_0_0_0_1_WIN
  0
3DFACE
  8
BLOCK1_ZONE2
 62
143
 10
       20.67151
 20
       -4.07180
 30
        2.26000
 11
       20.67151
 21
       -4.07180
 31
        0.84000
 12
       20.67151
 22
       -3.35402
 32
        0.84000
 13
       20.67151
 23
       -3.35402
 33
        2.26000
999
BLOCK1:ZONE2:BLOCK1:ZONE2_WALL_5_0_0
  0
3DFACE
  8
BLOCK1_ZONE2
 62
 43
 10
        3.91227
 20
      -14.26013
 30
        3.50000
 11
        3.91227
 21
      -14.26013
 31
        0.00000
 12
       20.67151
 22
      -14.26013
 32
        0.00000
 13
       20.67151
 23
      -14.26013
 33
        3.50000
999
BLOCK1:ZONE2:BLOCK1:ZONE2_WALL_5_0_0_0_0_2_WIN
  0
3DFACE
  8
BLOCK1_ZONE2
 62
143
 10
       17.36965
 20
      -14.26013
 30
        2.26000
 11
       17.36965
 21
      -14.26013
 31
        0.84000
 12
       17.92613
 22
      -14.26013
 32
        0.84000
 13
       17.92613
 23
      -14.26013
 33
        2.26000
999
BLOCK1:ZONE2:BLOCK1:ZONE2_GROUNDFLOOR_0_0_0
  0
3DFACE
  8
BLOCK1_ZONE2
 62
  8
 10
       20.67151
 20
       -0.19134
 30
        0.00000
 11
       20.67151
 21
      -14.26013
 31
        0.00000
 12
        3.91227
 22
      -14.26013
 32
        0.00000
 13
        3.91227
 23
       -0.19134
 33
        0.00000
999
BLOCK1:ZONE2:BLOCK1:ZONE2_ROOF_1_0_0
  0
3DFACE
  8
BLOCK1_ZONE2
 62
 15
 10
        3.91227
 20
       -0.19134
 30
        3.50000
 11
        3.91227
 21
      -14.26013
 31
        3.50000
 12
       20.67151
 22
      -14.26013
 32
        3.50000
 13
       20.67151
 23
       -0.19134
 33
        3.50000
  0
ENDSEC
  0
EOF
