  0
SECTION
  2
ENTITIES
999
DXF created from EnergyPlus
999
Program Version,EnergyPlus, Version 9.0.1-bb7ca4f0da, YMD=2021.01.02 20:54
999
Polygon Action,TRIANGULATE3DFACE
999
Color Scheme,Default
999
Text - True North
  0
TEXT
  8
1
  6
Continuous
 62
  3
 10
      -20.81945
 20
      -21.36809
 30
        0.10000
 40
 .25
  1
True North
 41
 0.0
  7
MONOTXT
210
0.0
220
0.0
230
1.0
999
Text - Building Title
  0
TEXT
  8
1
  6
Continuous
 62
  3
 10
      -23.81945
 20
      -25.36809
 30
        0.10000
 40
 .4
  1
Building - Building
 41
 0.0
  7
MONOTXT
210
0.0
220
0.0
230
1.0
999
North Arrow Stem
  0
3DFACE
  8
1
 62
  3
 10
      -19.81945
 20
      -21.36809
 30
        0.10000
 11
      -19.81945
 21
      -21.36809
 31
        0.00000
 12
      -19.81945
 22
      -24.36809
 32
        0.00000
 13
      -19.81945
 23
      -24.36809
 33
        0.10000
999
North Arrow Head 1
  0
3DFACE
  8
1
 62
  3
 10
      -19.81945
 20
      -21.36809
 30
        0.10000
 11
      -19.81945
 21
      -21.36809
 31
        0.00000
 12
      -20.31945
 22
      -22.23411
 32
        0.00000
 13
      -20.31945
 23
      -22.23411
 33
        0.10000
999
North Arrow Head 2
  0
3DFACE
  8
1
 62
  3
 10
      -19.81945
 20
      -21.36809
 30
        0.10000
 11
      -19.81945
 21
      -21.36809
 31
        0.00000
 12
      -19.31945
 22
      -22.23411
 32
        0.00000
 13
      -19.31945
 23
      -22.23411
 33
        0.10000
999
North Arrow Side 1
  0
3DFACE
  8
1
 62
  3
 10
      -20.31945
 20
      -19.86809
 30
        0.10000
 11
      -20.31945
 21
      -19.86809
 31
        0.00000
 12
      -20.31945
 22
      -20.86809
 32
        0.00000
 13
      -20.31945
 23
      -20.86809
 33
        0.10000
999
North Arrow Side 2
  0
3DFACE
  8
1
 62
  3
 10
      -20.31945
 20
      -19.86809
 30
        0.10000
 11
      -20.31945
 21
      -19.86809
 31
        0.00000
 12
      -19.31945
 22
      -20.86809
 32
        0.00000
 13
      -19.31945
 23
      -20.86809
 33
        0.10000
999
North Arrow Side 3
  0
3DFACE
  8
1
 62
  3
 10
      -19.31945
 20
      -19.86809
 30
        0.10000
 11
      -19.31945
 21
      -19.86809
 31
        0.00000
 12
      -19.31945
 22
      -20.86809
 32
        0.00000
 13
      -19.31945
 23
      -20.86809
 33
        0.10000
999
Zone Names
999
Zone=1:BLOCK1_ZONE3
999
Zone=2:BLOCK1_ZONE1
999
Zone=3:BLOCK1_ZONE4
999
Zone=4:BLOCK1_ZONE2
999
BLOCK1:ZONE3:BLOCK1:ZONE3_PARTITION_2_0_0
  0
3DFACE
  8
BLOCK1_ZONE3
 62
 43
 10
        0.19134
 20
       -7.49951
 30
        3.50000
 11
        0.19134
 21
       -7.49951
 31
        0.00000
 12
       -9.81945
 22
       -7.49951
 32
        0.00000
 13
       -9.81945
 23
       -7.49951
 33
        3.50000
999
BLOCK1:ZONE3:BLOCK1:ZONE3_PARTITION_2_0_0_0_0_0_DOOR
  0
3DFACE
  8
BLOCK1_ZONE3
 62
 45
 10
       -0.27000
 20
       -0.00000
 30
        1.52000
 11
       -0.27000
 21
       -0.00000
 31
        0.67000
 12
       -0.62000
 22
       -0.00000
 32
        0.67000
 13
       -0.62000
 23
       -0.00000
 33
        1.52000
999
BLOCK1:ZONE3:BLOCK1:ZONE3_WALL_3_0_0
  0
3DFACE
  8
BLOCK1_ZONE3
 62
 43
 10
       -9.81945
 20
       -7.49951
 30
        3.50000
 11
       -9.81945
 21
       -7.49951
 31
        0.00000
 12
       -9.81945
 22
      -24.36809
 32
        0.00000
 13
       -9.81945
 23
      -24.36809
 33
        3.50000
999
BLOCK1:ZONE3:BLOCK1:ZONE3_WALL_3_0_0_0_0_2_WIN
  0
3DFACE
  8
BLOCK1_ZONE3
 62
143
 10
       -0.00000
 20
        0.39000
 30
        0.98000
 11
       -0.00000
 21
        0.39000
 31
        0.44000
 12
       -0.00000
 22
        0.17000
 32
        0.44000
 13
       -0.00000
 23
        0.17000
 33
        0.98000
999
BLOCK1:ZONE3:BLOCK1:ZONE3_WALL_4_0_0
  0
3DFACE
  8
BLOCK1_ZONE3
 62
 43
 10
       -9.81945
 20
      -24.36809
 30
        3.50000
 11
       -9.81945
 21
      -24.36809
 31
        0.00000
 12
        0.19134
 22
      -24.36809
 32
        0.00000
 13
        0.19134
 23
      -24.36809
 33
        3.50000
999
BLOCK1:ZONE3:BLOCK1:ZONE3_WALL_4_0_0_0_0_0_WIN
  0
3DFACE
  8
BLOCK1_ZONE3
 62
143
 10
       -0.72000
 20
       -0.00000
 30
        0.98000
 11
       -0.72000
 21
       -0.00000
 31
        0.44000
 12
       -0.32000
 22
       -0.00000
 32
        0.44000
 13
       -0.32000
 23
       -0.00000
 33
        0.98000
999
BLOCK1:ZONE3:BLOCK1:ZONE3_PARTITION_5_0_0
  0
3DFACE
  8
BLOCK1_ZONE3
 62
 43
 10
        0.19134
 20
      -24.36809
 30
        3.50000
 11
        0.19134
 21
      -24.36809
 31
        0.00000
 12
        0.19134
 22
       -7.49951
 32
        0.00000
 13
        0.19134
 23
       -7.49951
 33
        3.50000
999
BLOCK1:ZONE3:BLOCK1:ZONE3_PARTITION_5_0_0_0_0_0_DOOR
  0
3DFACE
  8
BLOCK1_ZONE3
 62
 45
 10
       -0.00000
 20
        0.57000
 30
        2.04000
 11
       -0.00000
 21
        0.57000
 31
        0.90000
 12
       -0.00000
 22
        1.29000
 32
        0.90000
 13
       -0.00000
 23
        1.29000
 33
        2.04000
999
BLOCK1:ZONE3:BLOCK1:ZONE3_GROUNDFLOOR_0_0_0
  0
3DFACE
  8
BLOCK1_ZONE3
 62
  8
 10
       -9.81945
 20
       -7.49951
 30
        0.00000
 11
        0.19134
 21
       -7.49951
 31
        0.00000
 12
        0.19134
 22
      -24.36809
 32
        0.00000
 13
       -9.81945
 23
      -24.36809
 33
        0.00000
999
BLOCK1:ZONE3:BLOCK1:ZONE3_ROOF_1_0_0
  0
3DFACE
  8
BLOCK1_ZONE3
 62
 15
 10
       -9.81945
 20
      -24.36809
 30
        3.50000
 11
        0.19134
 21
      -24.36809
 31
        3.50000
 12
        0.19134
 22
       -7.49951
 32
        3.50000
 13
       -9.81945
 23
       -7.49951
 33
        3.50000
999
BLOCK1:ZONE1:BLOCK1:ZONE1_PARTITION_4_0_10000
  0
3DFACE
  8
BLOCK1_ZONE1
 62
 43
 10
       -9.81945
 20
       -7.49951
 30
        3.50000
 11
       -9.81945
 21
       -7.49951
 31
        0.00000
 12
        0.19134
 22
       -7.49951
 32
        0.00000
 13
        0.19134
 23
       -7.49951
 33
        3.50000
999
BLOCK1:ZONE1:BLOCK1:ZONE1_PARTITION_4_0_0_0_0_0_DOOR_10002
  0
3DFACE
  8
BLOCK1_ZONE1
 62
 45
 10
       -0.62000
 20
       -0.00000
 30
        1.52000
 11
       -0.62000
 21
       -0.00000
 31
        0.67000
 12
       -0.27000
 22
       -0.00000
 32
        0.67000
 13
       -0.27000
 23
       -0.00000
 33
        1.52000
999
BLOCK1:ZONE1:BLOCK1:ZONE1_WALL_2_0_0
  0
3DFACE
  8
BLOCK1_ZONE1
 62
 43
 10
        0.19134
 20
       20.67151
 30
        3.50000
 11
        0.19134
 21
       20.67151
 31
        0.00000
 12
       -9.81945
 22
       20.67151
 32
        0.00000
 13
       -9.81945
 23
       20.67151
 33
        3.50000
999
BLOCK1:ZONE1:BLOCK1:ZONE1_WALL_2_0_0_0_0_0_WIN
  0
3DFACE
  8
BLOCK1_ZONE1
 62
143
 10
       -0.32000
 20
       -0.00000
 30
        0.98000
 11
       -0.32000
 21
       -0.00000
 31
        0.44000
 12
       -0.72000
 22
       -0.00000
 32
        0.44000
 13
       -0.72000
 23
       -0.00000
 33
        0.98000
999
BLOCK1:ZONE1:BLOCK1:ZONE1_WALL_3_0_0
  0
3DFACE
  8
BLOCK1_ZONE1
 62
 43
 10
       -9.81945
 20
       20.67151
 30
        3.50000
 11
       -9.81945
 21
       20.67151
 31
        0.00000
 12
       -9.81945
 22
       -7.49951
 32
        0.00000
 13
       -9.81945
 23
       -7.49951
 33
        3.50000
999
BLOCK1:ZONE1:BLOCK1:ZONE1_WALL_3_0_0_0_0_0_DOOR
  0
3DFACE
  8
BLOCK1_ZONE1
 62
 45
 10
       -0.00000
 20
        2.68000
 30
        2.09000
 11
       -0.00000
 21
        2.68000
 31
        0.92000
 12
       -0.00000
 22
        1.18000
 32
        0.92000
 13
       -0.00000
 23
        1.18000
 33
        2.09000
999
BLOCK1:ZONE1:BLOCK1:ZONE1_PARTITION_5_0_0
  0
3DFACE
  8
BLOCK1_ZONE1
 62
 43
 10
        0.19134
 20
       -7.49951
 30
        3.50000
 11
        0.19134
 21
       -7.49951
 31
        0.00000
 12
        0.19134
 22
        3.91227
 32
        0.00000
 13
        0.19134
 23
        3.91227
 33
        3.50000
999
BLOCK1:ZONE1:BLOCK1:ZONE1_PARTITION_5_0_0_0_0_0_DOOR
  0
3DFACE
  8
BLOCK1_ZONE1
 62
 45
 10
       -0.00000
 20
        0.50000
 30
        1.82000
 11
       -0.00000
 21
        0.50000
 31
        0.80000
 12
       -0.00000
 22
        1.12000
 32
        0.80000
 13
       -0.00000
 23
        1.12000
 33
        1.82000
999
BLOCK1:ZONE1:BLOCK1:ZONE1_PARTITION_6_0_0
  0
3DFACE
  8
BLOCK1_ZONE1
 62
 43
 10
        0.19134
 20
        3.91227
 30
        3.50000
 11
        0.19134
 21
        3.91227
 31
        0.00000
 12
        0.19134
 22
       20.67151
 32
        0.00000
 13
        0.19134
 23
       20.67151
 33
        3.50000
999
BLOCK1:ZONE1:BLOCK1:ZONE1_GROUNDFLOOR_0_0_0
  0
3DFACE
  8
BLOCK1_ZONE1
 62
  8
 10
       -9.81945
 20
       20.67151
 30
        0.00000
 11
        0.19134
 21
       20.67151
 31
        0.00000
 12
        0.19134
 22
       -7.49951
 32
        0.00000
 13
       -9.81945
 23
       -7.49951
 33
        0.00000
999
BLOCK1:ZONE1:BLOCK1:ZONE1_ROOF_1_0_0
  0
3DFACE
  8
BLOCK1_ZONE1
 62
 15
 10
       -9.81945
 20
       -7.49951
 30
        3.50000
 11
        0.19134
 21
       -7.49951
 31
        3.50000
 12
        0.19134
 22
       20.67151
 32
        3.50000
 13
       -9.81945
 23
       20.67151
 33
        3.50000
999
BLOCK1:ZONE4:BLOCK1:ZONE4_PARTITION_4_0_10002
  0
3DFACE
  8
BLOCK1_ZONE4
 62
 43
 10
        0.19134
 20
       -7.49951
 30
        3.50000
 11
        0.19134
 21
       -7.49951
 31
        0.00000
 12
        0.19134
 22
      -24.36809
 32
        0.00000
 13
        0.19134
 23
      -24.36809
 33
        3.50000
999
BLOCK1:ZONE4:BLOCK1:ZONE4_PARTITION_4_0_0_0_0_0_DOOR_10004
  0
3DFACE
  8
BLOCK1_ZONE4
 62
 45
 10
       -0.00000
 20
        1.29000
 30
        2.04000
 11
       -0.00000
 21
        1.29000
 31
        0.90000
 12
       -0.00000
 22
        0.57000
 32
        0.90000
 13
       -0.00000
 23
        0.57000
 33
        2.04000
999
BLOCK1:ZONE4:BLOCK1:ZONE4_PARTITION_3_0_10004
  0
3DFACE
  8
BLOCK1_ZONE4
 62
 43
 10
        0.19134
 20
        3.91227
 30
        3.50000
 11
        0.19134
 21
        3.91227
 31
        0.00000
 12
        0.19134
 22
       -7.49951
 32
        0.00000
 13
        0.19134
 23
       -7.49951
 33
        3.50000
999
BLOCK1:ZONE4:BLOCK1:ZONE4_PARTITION_3_0_0_0_0_0_DOOR_10006
  0
3DFACE
  8
BLOCK1_ZONE4
 62
 45
 10
       -0.00000
 20
        1.12000
 30
        1.82000
 11
       -0.00000
 21
        1.12000
 31
        0.80000
 12
       -0.00000
 22
        0.50000
 32
        0.80000
 13
       -0.00000
 23
        0.50000
 33
        1.82000
999
BLOCK1:ZONE4:BLOCK1:ZONE4_PARTITION_2_0_0
  0
3DFACE
  8
BLOCK1_ZONE4
 62
 43
 10
       14.26013
 20
        3.91227
 30
        3.50000
 11
       14.26013
 21
        3.91227
 31
        0.00000
 12
        0.19134
 22
        3.91227
 32
        0.00000
 13
        0.19134
 23
        3.91227
 33
        3.50000
999
BLOCK1:ZONE4:BLOCK1:ZONE4_PARTITION_2_0_0_0_0_0_DOOR
  0
3DFACE
  8
BLOCK1_ZONE4
 62
 45
 10
       -0.61000
 20
       -0.00000
 30
        2.07000
 11
       -0.61000
 21
       -0.00000
 31
        0.92000
 12
       -1.39000
 22
       -0.00000
 32
        0.92000
 13
       -1.39000
 23
       -0.00000
 33
        2.07000
999
BLOCK1:ZONE4:BLOCK1:ZONE4_WALL_5_0_0
  0
3DFACE
  8
BLOCK1_ZONE4
 62
 43
 10
        0.19134
 20
      -24.36809
 30
        3.50000
 11
        0.19134
 21
      -24.36809
 31
        0.00000
 12
       14.26013
 22
      -24.36809
 32
        0.00000
 13
       14.26013
 23
      -24.36809
 33
        3.50000
999
BLOCK1:ZONE4:BLOCK1:ZONE4_WALL_5_0_0_0_0_1_WIN
  0
3DFACE
  8
BLOCK1_ZONE4
 62
143
 10
       -0.50000
 20
       -0.00000
 30
        0.98000
 11
       -0.50000
 21
       -0.00000
 31
        0.44000
 12
       -0.22000
 22
       -0.00000
 32
        0.44000
 13
       -0.22000
 23
       -0.00000
 33
        0.98000
999
BLOCK1:ZONE4:BLOCK1:ZONE4_WALL_6_0_0
  0
3DFACE
  8
BLOCK1_ZONE4
 62
 43
 10
       14.26013
 20
      -24.36809
 30
        3.50000
 11
       14.26013
 21
      -24.36809
 31
        0.00000
 12
       14.26013
 22
        3.91227
 32
        0.00000
 13
       14.26013
 23
        3.91227
 33
        3.50000
999
BLOCK1:ZONE4:BLOCK1:ZONE4_WALL_6_0_0_0_0_4_WIN
  0
3DFACE
  8
BLOCK1_ZONE4
 62
143
 10
       -0.00000
 20
        0.17000
 30
        0.98000
 11
       -0.00000
 21
        0.17000
 31
        0.44000
 12
       -0.00000
 22
        0.40000
 32
        0.44000
 13
       -0.00000
 23
        0.40000
 33
        0.98000
999
BLOCK1:ZONE4:BLOCK1:ZONE4_GROUNDFLOOR_0_0_0
  0
3DFACE
  8
BLOCK1_ZONE4
 62
  8
 10
        0.19134
 20
        3.91227
 30
        0.00000
 11
       14.26013
 21
        3.91227
 31
        0.00000
 12
       14.26013
 22
      -24.36809
 32
        0.00000
 13
        0.19134
 23
      -24.36809
 33
        0.00000
999
BLOCK1:ZONE4:BLOCK1:ZONE4_ROOF_1_0_0
  0
3DFACE
  8
BLOCK1_ZONE4
 62
 15
 10
        0.19134
 20
      -24.36809
 30
        3.50000
 11
       14.26013
 21
      -24.36809
 31
        3.50000
 12
       14.26013
 22
        3.91227
 32
        3.50000
 13
        0.19134
 23
        3.91227
 33
        3.50000
999
BLOCK1:ZONE2:BLOCK1:ZONE2_PARTITION_3_0_10006
  0
3DFACE
  8
BLOCK1_ZONE2
 62
 43
 10
        0.19134
 20
       20.67151
 30
        3.50000
 11
        0.19134
 21
       20.67151
 31
        0.00000
 12
        0.19134
 22
        3.91227
 32
        0.00000
 13
        0.19134
 23
        3.91227
 33
        3.50000
999
BLOCK1:ZONE2:BLOCK1:ZONE2_PARTITION_4_0_10007
  0
3DFACE
  8
BLOCK1_ZONE2
 62
 43
 10
        0.19134
 20
        3.91227
 30
        3.50000
 11
        0.19134
 21
        3.91227
 31
        0.00000
 12
       14.26013
 22
        3.91227
 32
        0.00000
 13
       14.26013
 23
        3.91227
 33
        3.50000
999
BLOCK1:ZONE2:BLOCK1:ZONE2_PARTITION_4_0_0_0_0_0_DOOR_10009
  0
3DFACE
  8
BLOCK1_ZONE2
 62
 45
 10
       -1.39000
 20
       -0.00000
 30
        2.07000
 11
       -1.39000
 21
       -0.00000
 31
        0.92000
 12
       -0.61000
 22
       -0.00000
 32
        0.92000
 13
       -0.61000
 23
       -0.00000
 33
        2.07000
999
BLOCK1:ZONE2:BLOCK1:ZONE2_WALL_2_0_0
  0
3DFACE
  8
BLOCK1_ZONE2
 62
 43
 10
       14.26013
 20
       20.67151
 30
        3.50000
 11
       14.26013
 21
       20.67151
 31
        0.00000
 12
        0.19134
 22
       20.67151
 32
        0.00000
 13
        0.19134
 23
       20.67151
 33
        3.50000
999
BLOCK1:ZONE2:BLOCK1:ZONE2_WALL_2_0_0_0_0_1_WIN
  0
3DFACE
  8
BLOCK1_ZONE2
 62
143
 10
       -0.22000
 20
       -0.00000
 30
        0.98000
 11
       -0.22000
 21
       -0.00000
 31
        0.44000
 12
       -0.50000
 22
       -0.00000
 32
        0.44000
 13
       -0.50000
 23
       -0.00000
 33
        0.98000
999
BLOCK1:ZONE2:BLOCK1:ZONE2_WALL_5_0_0
  0
3DFACE
  8
BLOCK1_ZONE2
 62
 43
 10
       14.26013
 20
        3.91227
 30
        3.50000
 11
       14.26013
 21
        3.91227
 31
        0.00000
 12
       14.26013
 22
       20.67151
 32
        0.00000
 13
       14.26013
 23
       20.67151
 33
        3.50000
999
BLOCK1:ZONE2:BLOCK1:ZONE2_WALL_5_0_0_0_0_2_WIN
  0
3DFACE
  8
BLOCK1_ZONE2
 62
143
 10
       -0.00000
 20
        0.17000
 30
        0.98000
 11
       -0.00000
 21
        0.17000
 31
        0.44000
 12
       -0.00000
 22
        0.39000
 32
        0.44000
 13
       -0.00000
 23
        0.39000
 33
        0.98000
999
BLOCK1:ZONE2:BLOCK1:ZONE2_GROUNDFLOOR_0_0_0
  0
3DFACE
  8
BLOCK1_ZONE2
 62
  8
 10
        0.19134
 20
       20.67151
 30
        0.00000
 11
       14.26013
 21
       20.67151
 31
        0.00000
 12
       14.26013
 22
        3.91227
 32
        0.00000
 13
        0.19134
 23
        3.91227
 33
        0.00000
999
BLOCK1:ZONE2:BLOCK1:ZONE2_ROOF_1_0_0
  0
3DFACE
  8
BLOCK1_ZONE2
 62
 15
 10
        0.19134
 20
        3.91227
 30
        3.50000
 11
       14.26013
 21
        3.91227
 31
        3.50000
 12
       14.26013
 22
       20.67151
 32
        3.50000
 13
        0.19134
 23
       20.67151
 33
        3.50000
  0
ENDSEC
  0
EOF
