  0
SECTION
  2
ENTITIES
999
DXF created from EnergyPlus
999
Program Version,EnergyPlus, Version 9.0.1-bb7ca4f0da, YMD=2021.01.03 15:12
999
Polygon Action,TRIANGULATE3DFACE
999
Color Scheme,Default
999
Text - True North
  0
TEXT
  8
1
  6
Continuous
 62
  3
 10
      -20.81945
 20
      -21.36809
 30
        0.10000
 40
 .25
  1
True North
 41
 0.0
  7
MONOTXT
210
0.0
220
0.0
230
1.0
999
Text - Building Title
  0
TEXT
  8
1
  6
Continuous
 62
  3
 10
      -23.81945
 20
      -25.36809
 30
        0.10000
 40
 .4
  1
Building - Building
 41
 0.0
  7
MONOTXT
210
0.0
220
0.0
230
1.0
999
North Arrow Stem
  0
3DFACE
  8
1
 62
  3
 10
      -19.81945
 20
      -21.36809
 30
        0.10000
 11
      -19.81945
 21
      -21.36809
 31
        0.00000
 12
      -19.81945
 22
      -24.36809
 32
        0.00000
 13
      -19.81945
 23
      -24.36809
 33
        0.10000
999
North Arrow Head 1
  0
3DFACE
  8
1
 62
  3
 10
      -19.81945
 20
      -21.36809
 30
        0.10000
 11
      -19.81945
 21
      -21.36809
 31
        0.00000
 12
      -20.31945
 22
      -22.23411
 32
        0.00000
 13
      -20.31945
 23
      -22.23411
 33
        0.10000
999
North Arrow Head 2
  0
3DFACE
  8
1
 62
  3
 10
      -19.81945
 20
      -21.36809
 30
        0.10000
 11
      -19.81945
 21
      -21.36809
 31
        0.00000
 12
      -19.31945
 22
      -22.23411
 32
        0.00000
 13
      -19.31945
 23
      -22.23411
 33
        0.10000
999
North Arrow Side 1
  0
3DFACE
  8
1
 62
  3
 10
      -20.31945
 20
      -19.86809
 30
        0.10000
 11
      -20.31945
 21
      -19.86809
 31
        0.00000
 12
      -20.31945
 22
      -20.86809
 32
        0.00000
 13
      -20.31945
 23
      -20.86809
 33
        0.10000
999
North Arrow Side 2
  0
3DFACE
  8
1
 62
  3
 10
      -20.31945
 20
      -19.86809
 30
        0.10000
 11
      -20.31945
 21
      -19.86809
 31
        0.00000
 12
      -19.31945
 22
      -20.86809
 32
        0.00000
 13
      -19.31945
 23
      -20.86809
 33
        0.10000
999
North Arrow Side 3
  0
3DFACE
  8
1
 62
  3
 10
      -19.31945
 20
      -19.86809
 30
        0.10000
 11
      -19.31945
 21
      -19.86809
 31
        0.00000
 12
      -19.31945
 22
      -20.86809
 32
        0.00000
 13
      -19.31945
 23
      -20.86809
 33
        0.10000
999
Zone Names
999
Zone=1:BLOCK1_ZONE3
999
Zone=2:BLOCK1_ZONE1
999
Zone=3:BLOCK1_ZONE4
999
Zone=4:BLOCK1_ZONE2
999
BLOCK1:ZONE3:BLOCK1:ZONE3_PARTITION_2_0_0
  0
3DFACE
  8
BLOCK1_ZONE3
 62
 43
 10
        0.19134
 20
       -7.49951
 30
        3.50000
 11
        0.19134
 21
       -7.49951
 31
        0.00000
 12
       -9.81945
 22
       -7.49951
 32
        0.00000
 13
       -9.81945
 23
       -7.49951
 33
        3.50000
999
BLOCK1:ZONE3:BLOCK1:ZONE3_PARTITION_2_0_0_0_0_0_DOOR
  0
3DFACE
  8
BLOCK1_ZONE3
 62
 45
 10
       -0.13000
 20
       -0.00000
 30
        1.87000
 11
       -0.13000
 21
       -0.00000
 31
        0.32000
 12
       -0.76000
 22
       -0.00000
 32
        0.32000
 13
       -0.76000
 23
       -0.00000
 33
        1.87000
999
BLOCK1:ZONE3:BLOCK1:ZONE3_WALL_3_0_0
  0
3DFACE
  8
BLOCK1_ZONE3
 62
 43
 10
       -9.81945
 20
       -7.49951
 30
        3.50000
 11
       -9.81945
 21
       -7.49951
 31
        0.00000
 12
       -9.81945
 22
      -24.36809
 32
        0.00000
 13
       -9.81945
 23
      -24.36809
 33
        3.50000
999
BLOCK1:ZONE3:BLOCK1:ZONE3_WALL_3_0_0_0_0_0_WIN
  0
3DFACE
  8
BLOCK1_ZONE3
 62
143
 10
       -0.00000
 20
        0.48000
 30
        1.21000
 11
       -0.00000
 21
        0.48000
 31
        0.21000
 12
       -0.00000
 22
        0.08000
 32
        0.21000
 13
       -0.00000
 23
        0.08000
 33
        1.21000
999
BLOCK1:ZONE3:BLOCK1:ZONE3_WALL_4_0_0
  0
3DFACE
  8
BLOCK1_ZONE3
 62
 43
 10
       -9.81945
 20
      -24.36809
 30
        3.50000
 11
       -9.81945
 21
      -24.36809
 31
        0.00000
 12
        0.19134
 22
      -24.36809
 32
        0.00000
 13
        0.19134
 23
      -24.36809
 33
        3.50000
999
BLOCK1:ZONE3:BLOCK1:ZONE3_WALL_4_0_0_0_0_0_WIN
  0
3DFACE
  8
BLOCK1_ZONE3
 62
143
 10
       -0.89000
 20
       -0.00000
 30
        1.21000
 11
       -0.89000
 21
       -0.00000
 31
        0.21000
 12
       -0.15000
 22
       -0.00000
 32
        0.21000
 13
       -0.15000
 23
       -0.00000
 33
        1.21000
999
BLOCK1:ZONE3:BLOCK1:ZONE3_PARTITION_5_0_0
  0
3DFACE
  8
BLOCK1_ZONE3
 62
 43
 10
        0.19134
 20
      -24.36809
 30
        3.50000
 11
        0.19134
 21
      -24.36809
 31
        0.00000
 12
        0.19134
 22
       -7.49951
 32
        0.00000
 13
        0.19134
 23
       -7.49951
 33
        3.50000
999
BLOCK1:ZONE3:BLOCK1:ZONE3_PARTITION_5_0_0_0_0_0_DOOR
  0
3DFACE
  8
BLOCK1_ZONE3
 62
 45
 10
       -0.00000
 20
        0.27000
 30
        2.51000
 11
       -0.00000
 21
        0.27000
 31
        0.43000
 12
       -0.00000
 22
        1.59000
 32
        0.43000
 13
       -0.00000
 23
        1.59000
 33
        2.51000
999
BLOCK1:ZONE3:BLOCK1:ZONE3_GROUNDFLOOR_0_0_0
  0
3DFACE
  8
BLOCK1_ZONE3
 62
  8
 10
       -9.81945
 20
       -7.49951
 30
        0.00000
 11
        0.19134
 21
       -7.49951
 31
        0.00000
 12
        0.19134
 22
      -24.36809
 32
        0.00000
 13
       -9.81945
 23
      -24.36809
 33
        0.00000
999
BLOCK1:ZONE3:BLOCK1:ZONE3_ROOF_1_0_0
  0
3DFACE
  8
BLOCK1_ZONE3
 62
 15
 10
       -9.81945
 20
      -24.36809
 30
        3.50000
 11
        0.19134
 21
      -24.36809
 31
        3.50000
 12
        0.19134
 22
       -7.49951
 32
        3.50000
 13
       -9.81945
 23
       -7.49951
 33
        3.50000
999
BLOCK1:ZONE1:BLOCK1:ZONE1_PARTITION_4_0_10000
  0
3DFACE
  8
BLOCK1_ZONE1
 62
 43
 10
       -9.81945
 20
       -7.49951
 30
        3.50000
 11
       -9.81945
 21
       -7.49951
 31
        0.00000
 12
        0.19134
 22
       -7.49951
 32
        0.00000
 13
        0.19134
 23
       -7.49951
 33
        3.50000
999
BLOCK1:ZONE1:BLOCK1:ZONE1_PARTITION_4_0_0_0_0_0_DOOR_10002
  0
3DFACE
  8
BLOCK1_ZONE1
 62
 45
 10
       -0.76000
 20
       -0.00000
 30
        1.87000
 11
       -0.76000
 21
       -0.00000
 31
        0.32000
 12
       -0.13000
 22
       -0.00000
 32
        0.32000
 13
       -0.13000
 23
       -0.00000
 33
        1.87000
999
BLOCK1:ZONE1:BLOCK1:ZONE1_WALL_2_0_0
  0
3DFACE
  8
BLOCK1_ZONE1
 62
 43
 10
        0.19134
 20
       20.67151
 30
        3.50000
 11
        0.19134
 21
       20.67151
 31
        0.00000
 12
       -9.81945
 22
       20.67151
 32
        0.00000
 13
       -9.81945
 23
       20.67151
 33
        3.50000
999
BLOCK1:ZONE1:BLOCK1:ZONE1_WALL_2_0_0_0_0_0_WIN
  0
3DFACE
  8
BLOCK1_ZONE1
 62
143
 10
       -0.15000
 20
       -0.00000
 30
        1.21000
 11
       -0.15000
 21
       -0.00000
 31
        0.21000
 12
       -0.89000
 22
       -0.00000
 32
        0.21000
 13
       -0.89000
 23
       -0.00000
 33
        1.21000
999
BLOCK1:ZONE1:BLOCK1:ZONE1_WALL_3_0_0
  0
3DFACE
  8
BLOCK1_ZONE1
 62
 43
 10
       -9.81945
 20
       20.67151
 30
        3.50000
 11
       -9.81945
 21
       20.67151
 31
        0.00000
 12
       -9.81945
 22
       -7.49951
 32
        0.00000
 13
       -9.81945
 23
       -7.49951
 33
        3.50000
999
BLOCK1:ZONE1:BLOCK1:ZONE1_WALL_3_0_0_0_0_0_DOOR
  0
3DFACE
  8
BLOCK1_ZONE1
 62
 45
 10
       -0.00000
 20
        3.30000
 30
        2.58000
 11
       -0.00000
 21
        3.30000
 31
        0.44000
 12
       -0.00000
 22
        0.57000
 32
        0.44000
 13
       -0.00000
 23
        0.57000
 33
        2.58000
999
BLOCK1:ZONE1:BLOCK1:ZONE1_PARTITION_5_0_0
  0
3DFACE
  8
BLOCK1_ZONE1
 62
 43
 10
        0.19134
 20
       -7.49951
 30
        3.50000
 11
        0.19134
 21
       -7.49951
 31
        0.00000
 12
        0.19134
 22
        3.91227
 32
        0.00000
 13
        0.19134
 23
        3.91227
 33
        3.50000
999
BLOCK1:ZONE1:BLOCK1:ZONE1_PARTITION_5_0_0_0_0_0_DOOR
  0
3DFACE
  8
BLOCK1_ZONE1
 62
 45
 10
       -0.00000
 20
        0.24000
 30
        2.24000
 11
       -0.00000
 21
        0.24000
 31
        0.38000
 12
       -0.00000
 22
        1.38000
 32
        0.38000
 13
       -0.00000
 23
        1.38000
 33
        2.24000
999
BLOCK1:ZONE1:BLOCK1:ZONE1_PARTITION_6_0_0
  0
3DFACE
  8
BLOCK1_ZONE1
 62
 43
 10
        0.19134
 20
        3.91227
 30
        3.50000
 11
        0.19134
 21
        3.91227
 31
        0.00000
 12
        0.19134
 22
       20.67151
 32
        0.00000
 13
        0.19134
 23
       20.67151
 33
        3.50000
999
BLOCK1:ZONE1:BLOCK1:ZONE1_GROUNDFLOOR_0_0_0
  0
3DFACE
  8
BLOCK1_ZONE1
 62
  8
 10
       -9.81945
 20
       20.67151
 30
        0.00000
 11
        0.19134
 21
       20.67151
 31
        0.00000
 12
        0.19134
 22
       -7.49951
 32
        0.00000
 13
       -9.81945
 23
       -7.49951
 33
        0.00000
999
BLOCK1:ZONE1:BLOCK1:ZONE1_ROOF_1_0_0
  0
3DFACE
  8
BLOCK1_ZONE1
 62
 15
 10
       -9.81945
 20
       -7.49951
 30
        3.50000
 11
        0.19134
 21
       -7.49951
 31
        3.50000
 12
        0.19134
 22
       20.67151
 32
        3.50000
 13
       -9.81945
 23
       20.67151
 33
        3.50000
999
BLOCK1:ZONE4:BLOCK1:ZONE4_PARTITION_4_0_10002
  0
3DFACE
  8
BLOCK1_ZONE4
 62
 43
 10
        0.19134
 20
       -7.49951
 30
        3.50000
 11
        0.19134
 21
       -7.49951
 31
        0.00000
 12
        0.19134
 22
      -24.36809
 32
        0.00000
 13
        0.19134
 23
      -24.36809
 33
        3.50000
999
BLOCK1:ZONE4:BLOCK1:ZONE4_PARTITION_4_0_0_0_0_0_DOOR_10004
  0
3DFACE
  8
BLOCK1_ZONE4
 62
 45
 10
       -0.00000
 20
        1.59000
 30
        2.51000
 11
       -0.00000
 21
        1.59000
 31
        0.43000
 12
       -0.00000
 22
        0.27000
 32
        0.43000
 13
       -0.00000
 23
        0.27000
 33
        2.51000
999
BLOCK1:ZONE4:BLOCK1:ZONE4_PARTITION_3_0_10004
  0
3DFACE
  8
BLOCK1_ZONE4
 62
 43
 10
        0.19134
 20
        3.91227
 30
        3.50000
 11
        0.19134
 21
        3.91227
 31
        0.00000
 12
        0.19134
 22
       -7.49951
 32
        0.00000
 13
        0.19134
 23
       -7.49951
 33
        3.50000
999
BLOCK1:ZONE4:BLOCK1:ZONE4_PARTITION_3_0_0_0_0_0_DOOR_10006
  0
3DFACE
  8
BLOCK1_ZONE4
 62
 45
 10
       -0.00000
 20
        1.38000
 30
        2.24000
 11
       -0.00000
 21
        1.38000
 31
        0.38000
 12
       -0.00000
 22
        0.24000
 32
        0.38000
 13
       -0.00000
 23
        0.24000
 33
        2.24000
999
BLOCK1:ZONE4:BLOCK1:ZONE4_PARTITION_2_0_0
  0
3DFACE
  8
BLOCK1_ZONE4
 62
 43
 10
       14.26013
 20
        3.91227
 30
        3.50000
 11
       14.26013
 21
        3.91227
 31
        0.00000
 12
        0.19134
 22
        3.91227
 32
        0.00000
 13
        0.19134
 23
        3.91227
 33
        3.50000
999
BLOCK1:ZONE4:BLOCK1:ZONE4_PARTITION_2_0_0_0_0_0_DOOR
  0
3DFACE
  8
BLOCK1_ZONE4
 62
 45
 10
       -0.29000
 20
       -0.00000
 30
        2.55000
 11
       -0.29000
 21
       -0.00000
 31
        0.44000
 12
       -1.71000
 22
       -0.00000
 32
        0.44000
 13
       -1.71000
 23
       -0.00000
 33
        2.55000
999
BLOCK1:ZONE4:BLOCK1:ZONE4_WALL_5_0_0
  0
3DFACE
  8
BLOCK1_ZONE4
 62
 43
 10
        0.19134
 20
      -24.36809
 30
        3.50000
 11
        0.19134
 21
      -24.36809
 31
        0.00000
 12
       14.26013
 22
      -24.36809
 32
        0.00000
 13
       14.26013
 23
      -24.36809
 33
        3.50000
999
BLOCK1:ZONE4:BLOCK1:ZONE4_WALL_5_0_0_0_0_0_WIN
  0
3DFACE
  8
BLOCK1_ZONE4
 62
143
 10
       -0.61000
 20
       -0.00000
 30
        1.21000
 11
       -0.61000
 21
       -0.00000
 31
        0.21000
 12
       -0.11000
 22
       -0.00000
 32
        0.21000
 13
       -0.11000
 23
       -0.00000
 33
        1.21000
999
BLOCK1:ZONE4:BLOCK1:ZONE4_WALL_6_0_0
  0
3DFACE
  8
BLOCK1_ZONE4
 62
 43
 10
       14.26013
 20
      -24.36809
 30
        3.50000
 11
       14.26013
 21
      -24.36809
 31
        0.00000
 12
       14.26013
 22
        3.91227
 32
        0.00000
 13
       14.26013
 23
        3.91227
 33
        3.50000
999
BLOCK1:ZONE4:BLOCK1:ZONE4_WALL_6_0_0_0_0_0_WIN
  0
3DFACE
  8
BLOCK1_ZONE4
 62
143
 10
       -0.00000
 20
        0.08000
 30
        1.21000
 11
       -0.00000
 21
        0.08000
 31
        0.21000
 12
       -0.00000
 22
        0.49000
 32
        0.21000
 13
       -0.00000
 23
        0.49000
 33
        1.21000
999
BLOCK1:ZONE4:BLOCK1:ZONE4_GROUNDFLOOR_0_0_0
  0
3DFACE
  8
BLOCK1_ZONE4
 62
  8
 10
        0.19134
 20
        3.91227
 30
        0.00000
 11
       14.26013
 21
        3.91227
 31
        0.00000
 12
       14.26013
 22
      -24.36809
 32
        0.00000
 13
        0.19134
 23
      -24.36809
 33
        0.00000
999
BLOCK1:ZONE4:BLOCK1:ZONE4_ROOF_1_0_0
  0
3DFACE
  8
BLOCK1_ZONE4
 62
 15
 10
        0.19134
 20
      -24.36809
 30
        3.50000
 11
       14.26013
 21
      -24.36809
 31
        3.50000
 12
       14.26013
 22
        3.91227
 32
        3.50000
 13
        0.19134
 23
        3.91227
 33
        3.50000
999
BLOCK1:ZONE2:BLOCK1:ZONE2_PARTITION_3_0_10006
  0
3DFACE
  8
BLOCK1_ZONE2
 62
 43
 10
        0.19134
 20
       20.67151
 30
        3.50000
 11
        0.19134
 21
       20.67151
 31
        0.00000
 12
        0.19134
 22
        3.91227
 32
        0.00000
 13
        0.19134
 23
        3.91227
 33
        3.50000
999
BLOCK1:ZONE2:BLOCK1:ZONE2_PARTITION_4_0_10007
  0
3DFACE
  8
BLOCK1_ZONE2
 62
 43
 10
        0.19134
 20
        3.91227
 30
        3.50000
 11
        0.19134
 21
        3.91227
 31
        0.00000
 12
       14.26013
 22
        3.91227
 32
        0.00000
 13
       14.26013
 23
        3.91227
 33
        3.50000
999
BLOCK1:ZONE2:BLOCK1:ZONE2_PARTITION_4_0_0_0_0_0_DOOR_10009
  0
3DFACE
  8
BLOCK1_ZONE2
 62
 45
 10
       -1.71000
 20
       -0.00000
 30
        2.55000
 11
       -1.71000
 21
       -0.00000
 31
        0.44000
 12
       -0.29000
 22
       -0.00000
 32
        0.44000
 13
       -0.29000
 23
       -0.00000
 33
        2.55000
999
BLOCK1:ZONE2:BLOCK1:ZONE2_WALL_2_0_0
  0
3DFACE
  8
BLOCK1_ZONE2
 62
 43
 10
       14.26013
 20
       20.67151
 30
        3.50000
 11
       14.26013
 21
       20.67151
 31
        0.00000
 12
        0.19134
 22
       20.67151
 32
        0.00000
 13
        0.19134
 23
       20.67151
 33
        3.50000
999
BLOCK1:ZONE2:BLOCK1:ZONE2_WALL_2_0_0_0_0_0_WIN
  0
3DFACE
  8
BLOCK1_ZONE2
 62
143
 10
       -0.11000
 20
       -0.00000
 30
        1.21000
 11
       -0.11000
 21
       -0.00000
 31
        0.21000
 12
       -0.61000
 22
       -0.00000
 32
        0.21000
 13
       -0.61000
 23
       -0.00000
 33
        1.21000
999
BLOCK1:ZONE2:BLOCK1:ZONE2_WALL_5_0_0
  0
3DFACE
  8
BLOCK1_ZONE2
 62
 43
 10
       14.26013
 20
        3.91227
 30
        3.50000
 11
       14.26013
 21
        3.91227
 31
        0.00000
 12
       14.26013
 22
       20.67151
 32
        0.00000
 13
       14.26013
 23
       20.67151
 33
        3.50000
999
BLOCK1:ZONE2:BLOCK1:ZONE2_WALL_5_0_0_0_0_0_WIN
  0
3DFACE
  8
BLOCK1_ZONE2
 62
143
 10
       -0.00000
 20
        0.08000
 30
        1.21000
 11
       -0.00000
 21
        0.08000
 31
        0.21000
 12
       -0.00000
 22
        0.47000
 32
        0.21000
 13
       -0.00000
 23
        0.47000
 33
        1.21000
999
BLOCK1:ZONE2:BLOCK1:ZONE2_GROUNDFLOOR_0_0_0
  0
3DFACE
  8
BLOCK1_ZONE2
 62
  8
 10
        0.19134
 20
       20.67151
 30
        0.00000
 11
       14.26013
 21
       20.67151
 31
        0.00000
 12
       14.26013
 22
        3.91227
 32
        0.00000
 13
        0.19134
 23
        3.91227
 33
        0.00000
999
BLOCK1:ZONE2:BLOCK1:ZONE2_ROOF_1_0_0
  0
3DFACE
  8
BLOCK1_ZONE2
 62
 15
 10
        0.19134
 20
        3.91227
 30
        3.50000
 11
       14.26013
 21
        3.91227
 31
        3.50000
 12
       14.26013
 22
       20.67151
 32
        3.50000
 13
        0.19134
 23
       20.67151
 33
        3.50000
  0
ENDSEC
  0
EOF
